<?xml version='1.0' encoding='utf-8'?>
<routes xmlns:xsi="http://www.w3.org/2001/XMLSchema-instance" xsi:noNamespaceSchemaLocation="http://sumo.dlr.de/xsd/routes_file.xsd"><vehicle id="0" depart="0.00"><route edges="-196116973#23 -196116973#22 -196116973#21 -196116973#20 -196116973#19 -196116973#18 -196116973#17 -196116973#16 -196116973#15 -196116973#14 196116973#14 196116973#15 196116973#16 196116973#17 196116973#18 196116973#19 5672503#12 5672503#13 5672503#14 -440122879#2 -440122879#1" /></vehicle><vehicle id="1" depart="30.00"><route edges="-196116973#23 -196116973#22 -196116973#21 -196116973#20 -196116973#19 -196116973#18 -196116973#17 -196116973#16 -196116973#15 -196116973#14 196116973#14 196116973#15 196116973#16 196116973#17 196116973#18 196116973#19 5672503#12 5672503#13 5672503#14 -440122879#2 -440122879#1" /></vehicle><vehicle id="2" depart="30.10"><route edges="-196116973#23 -196116973#22 -196116973#21 -196116973#20 -196116973#19 -196116973#18 -196116973#17 -196116973#16 -196116973#15 -196116973#14 196116973#14 196116973#15 196116973#16 196116973#17 196116973#18 196116973#19 5672503#12 5672503#13 5672503#14 -440122879#2 -440122879#1" /></vehicle><vehicle id="3" depart="60.00"><route edges="-196116973#23 -196116973#22 -196116973#21 -196116973#20 -196116973#19 -196116973#18 -196116973#17 -196116973#16 -196116973#15 -196116973#14 196116973#14 196116973#15 196116973#16 196116973#17 196116973#18 196116973#19 5672503#12 5672503#13 5672503#14 -440122879#2 -440122879#1" /></vehicle><vehicle id="4" depart="60.10"><route edges="-196116973#23 -196116973#22 -196116973#21 -196116973#20 -196116973#19 -196116973#18 -196116973#17 -196116973#16 -196116973#15 -196116973#14 196116973#14 196116973#15 196116973#16 196116973#17 196116973#18 196116973#19 5672503#12 5672503#13 5672503#14 -440122879#2 -440122879#1" /></vehicle><vehicle id="5" depart="60.20"><route edges="-196116973#23 -196116973#22 -196116973#21 -196116973#20 -196116973#19 -196116973#18 -196116973#17 -196116973#16 -196116973#15 -196116973#14 196116973#14 196116973#15 196116973#16 196116973#17 196116973#18 196116973#19 5672503#12 5672503#13 5672503#14 -440122879#2 -440122879#1" /></vehicle><vehicle id="6" depart="90.00"><route edges="-196116973#23 -196116973#22 -196116973#21 -196116973#20 -196116973#19 -196116973#18 -196116973#17 -196116973#16 -196116973#15 -196116973#14 196116973#14 196116973#15 196116973#16 196116973#17 196116973#18 196116973#19 5672503#12 5672503#13 5672503#14 -440122879#2 -440122879#1" /></vehicle><vehicle id="7" depart="90.10"><route edges="-196116973#23 -196116973#22 -196116973#21 -196116973#20 -196116973#19 -196116973#18 -196116973#17 -196116973#16 -196116973#15 -196116973#14 196116973#14 196116973#15 196116973#16 196116973#17 196116973#18 196116973#19 5672503#12 5672503#13 5672503#14 -440122879#2 -440122879#1" /></vehicle><vehicle id="8" depart="90.20"><route edges="-196116973#23 -196116973#22 -196116973#21 -196116973#20 -196116973#19 -196116973#18 -196116973#17 -196116973#16 -196116973#15 -196116973#14 196116973#14 196116973#15 196116973#16 196116973#17 196116973#18 196116973#19 5672503#12 5672503#13 5672503#14 -440122879#2 -440122879#1" /></vehicle><vehicle id="9" depart="90.30"><route edges="-196116973#23 -196116973#22 -196116973#21 -196116973#20 -196116973#19 -196116973#18 -196116973#17 -196116973#16 -196116973#15 -196116973#14 196116973#14 196116973#15 196116973#16 196116973#17 196116973#18 196116973#19 5672503#12 5672503#13 5672503#14 -440122879#2 -440122879#1" /></vehicle><vehicle id="10" depart="120.00"><route edges="-196116973#23 -196116973#22 -196116973#21 -196116973#20 -196116973#19 -196116973#18 -196116973#17 -196116973#16 -196116973#15 -196116973#14 196116973#14 196116973#15 196116973#16 196116973#17 196116973#18 196116973#19 5672503#12 5672503#13 5672503#14 -440122879#2 -440122879#1" /></vehicle><vehicle id="11" depart="120.10"><route edges="-196116973#23 -196116973#22 -196116973#21 -196116973#20 -196116973#19 -196116973#18 -196116973#17 -196116973#16 -196116973#15 -196116973#14 196116973#14 196116973#15 196116973#16 196116973#17 196116973#18 196116973#19 5672503#12 5672503#13 5672503#14 -440122879#2 -440122879#1" /></vehicle><vehicle id="12" depart="120.20"><route edges="-196116973#23 -196116973#22 -196116973#21 -196116973#20 -196116973#19 -196116973#18 -196116973#17 -196116973#16 -196116973#15 -196116973#14 196116973#14 196116973#15 196116973#16 196116973#17 196116973#18 196116973#19 5672503#12 5672503#13 5672503#14 -440122879#2 -440122879#1" /></vehicle><vehicle id="13" depart="120.30"><route edges="-196116973#23 -196116973#22 -196116973#21 -196116973#20 -196116973#19 -196116973#18 -196116973#17 -196116973#16 -196116973#15 -196116973#14 196116973#14 196116973#15 196116973#16 196116973#17 196116973#18 196116973#19 5672503#12 5672503#13 5672503#14 -440122879#2 -440122879#1" /></vehicle><vehicle id="14" depart="120.40"><route edges="-196116973#23 -196116973#22 -196116973#21 -196116973#20 -196116973#19 -196116973#18 -196116973#17 -196116973#16 -196116973#15 -196116973#14 196116973#14 196116973#15 196116973#16 196116973#17 196116973#18 196116973#19 5672503#12 5672503#13 5672503#14 -440122879#2 -440122879#1" /></vehicle><vehicle id="15" depart="150.00"><route edges="-196116973#23 -196116973#22 -196116973#21 -196116973#20 -196116973#19 -196116973#18 -196116973#17 -196116973#16 -196116973#15 -196116973#14 196116973#14 196116973#15 196116973#16 196116973#17 196116973#18 196116973#19 5672503#12 5672503#13 5672503#14 -440122879#2 -440122879#1" /></vehicle><vehicle id="16" depart="150.10"><route edges="-196116973#23 -196116973#22 -196116973#21 -196116973#20 -196116973#19 -196116973#18 -196116973#17 -196116973#16 -196116973#15 -196116973#14 196116973#14 196116973#15 196116973#16 196116973#17 196116973#18 196116973#19 5672503#12 5672503#13 5672503#14 -440122879#2 -440122879#1" /></vehicle><vehicle id="17" depart="150.20"><route edges="-196116973#23 -196116973#22 -196116973#21 -196116973#20 -196116973#19 -196116973#18 -196116973#17 -196116973#16 -196116973#15 -196116973#14 196116973#14 196116973#15 196116973#16 196116973#17 196116973#18 196116973#19 5672503#12 5672503#13 5672503#14 -440122879#2 -440122879#1" /></vehicle><vehicle id="18" depart="150.30"><route edges="-196116973#23 -196116973#22 -196116973#21 -196116973#20 -196116973#19 -196116973#18 -196116973#17 -196116973#16 -196116973#15 -196116973#14 196116973#14 196116973#15 196116973#16 196116973#17 196116973#18 196116973#19 5672503#12 5672503#13 5672503#14 -440122879#2 -440122879#1" /></vehicle><vehicle id="19" depart="150.40"><route edges="-196116973#23 -196116973#22 -196116973#21 -196116973#20 -196116973#19 -196116973#18 -196116973#17 -196116973#16 -196116973#15 -196116973#14 196116973#14 196116973#15 196116973#16 196116973#17 196116973#18 196116973#19 5672503#12 5672503#13 5672503#14 -440122879#2 -440122879#1" /></vehicle><vehicle id="20" depart="150.50"><route edges="-196116973#23 -196116973#22 -196116973#21 -196116973#20 -196116973#19 -196116973#18 -196116973#17 -196116973#16 -196116973#15 -196116973#14 196116973#14 196116973#15 196116973#16 196116973#17 196116973#18 196116973#19 5672503#12 5672503#13 5672503#14 -440122879#2 -440122879#1" /></vehicle><vehicle id="21" depart="180.00"><route edges="-196116973#23 -196116973#22 -196116973#21 -196116973#20 -196116973#19 -196116973#18 -196116973#17 -196116973#16 -196116973#15 -196116973#14 196116973#14 196116973#15 196116973#16 196116973#17 196116973#18 196116973#19 5672503#12 5672503#13 5672503#14 -440122879#2 -440122879#1" /></vehicle><vehicle id="22" depart="180.10"><route edges="-196116973#23 -196116973#22 -196116973#21 -196116973#20 -196116973#19 -196116973#18 -196116973#17 -196116973#16 -196116973#15 -196116973#14 196116973#14 196116973#15 196116973#16 196116973#17 196116973#18 196116973#19 5672503#12 5672503#13 5672503#14 -440122879#2 -440122879#1" /></vehicle><vehicle id="23" depart="180.20"><route edges="-196116973#23 -196116973#22 -196116973#21 -196116973#20 -196116973#19 -196116973#18 -196116973#17 -196116973#16 -196116973#15 -196116973#14 196116973#14 196116973#15 196116973#16 196116973#17 196116973#18 196116973#19 5672503#12 5672503#13 5672503#14 -440122879#2 -440122879#1" /></vehicle><vehicle id="24" depart="180.30"><route edges="-196116973#23 -196116973#22 -196116973#21 -196116973#20 -196116973#19 -196116973#18 -196116973#17 -196116973#16 -196116973#15 -196116973#14 196116973#14 196116973#15 196116973#16 196116973#17 196116973#18 196116973#19 5672503#12 5672503#13 5672503#14 -440122879#2 -440122879#1" /></vehicle><vehicle id="25" depart="180.40"><route edges="-196116973#23 -196116973#22 -196116973#21 -196116973#20 -196116973#19 -196116973#18 -196116973#17 -196116973#16 -196116973#15 -196116973#14 196116973#14 196116973#15 196116973#16 196116973#17 196116973#18 196116973#19 5672503#12 5672503#13 5672503#14 -440122879#2 -440122879#1" /></vehicle><vehicle id="26" depart="180.50"><route edges="-196116973#23 -196116973#22 -196116973#21 -196116973#20 -196116973#19 -196116973#18 -196116973#17 -196116973#16 -196116973#15 -196116973#14 196116973#14 196116973#15 196116973#16 196116973#17 196116973#18 196116973#19 5672503#12 5672503#13 5672503#14 -440122879#2 -440122879#1" /></vehicle><vehicle id="27" depart="180.60"><route edges="-196116973#23 -196116973#22 -196116973#21 -196116973#20 -196116973#19 -196116973#18 -196116973#17 -196116973#16 -196116973#15 -196116973#14 196116973#14 196116973#15 196116973#16 196116973#17 196116973#18 196116973#19 5672503#12 5672503#13 5672503#14 -440122879#2 -440122879#1" /></vehicle><vehicle id="28" depart="210.00"><route edges="-196116973#23 -196116973#22 -196116973#21 -196116973#20 -196116973#19 -196116973#18 -196116973#17 -196116973#16 -196116973#15 -196116973#14 196116973#14 196116973#15 196116973#16 196116973#17 196116973#18 196116973#19 5672503#12 5672503#13 5672503#14 -440122879#2 -440122879#1" /></vehicle><vehicle id="29" depart="210.10"><route edges="-196116973#23 -196116973#22 -196116973#21 -196116973#20 -196116973#19 -196116973#18 -196116973#17 -196116973#16 -196116973#15 -196116973#14 196116973#14 196116973#15 196116973#16 196116973#17 196116973#18 196116973#19 5672503#12 5672503#13 5672503#14 -440122879#2 -440122879#1" /></vehicle><vehicle id="30" depart="210.20"><route edges="-196116973#23 -196116973#22 -196116973#21 -196116973#20 -196116973#19 -196116973#18 -196116973#17 -196116973#16 -196116973#15 -196116973#14 196116973#14 196116973#15 196116973#16 196116973#17 196116973#18 196116973#19 5672503#12 5672503#13 5672503#14 -440122879#2 -440122879#1" /></vehicle><vehicle id="31" depart="210.30"><route edges="-196116973#23 -196116973#22 -196116973#21 -196116973#20 -196116973#19 -196116973#18 -196116973#17 -196116973#16 -196116973#15 -196116973#14 196116973#14 196116973#15 196116973#16 196116973#17 196116973#18 196116973#19 5672503#12 5672503#13 5672503#14 -440122879#2 -440122879#1" /></vehicle><vehicle id="32" depart="210.40"><route edges="-196116973#23 -196116973#22 -196116973#21 -196116973#20 -196116973#19 -196116973#18 -196116973#17 -196116973#16 -196116973#15 -196116973#14 196116973#14 196116973#15 196116973#16 196116973#17 196116973#18 196116973#19 5672503#12 5672503#13 5672503#14 -440122879#2 -440122879#1" /></vehicle><vehicle id="33" depart="210.50"><route edges="-196116973#23 -196116973#22 -196116973#21 -196116973#20 -196116973#19 -196116973#18 -196116973#17 -196116973#16 -196116973#15 -196116973#14 196116973#14 196116973#15 196116973#16 196116973#17 196116973#18 196116973#19 5672503#12 5672503#13 5672503#14 -440122879#2 -440122879#1" /></vehicle><vehicle id="34" depart="210.60"><route edges="-196116973#23 -196116973#22 -196116973#21 -196116973#20 -196116973#19 -196116973#18 -196116973#17 -196116973#16 -196116973#15 -196116973#14 196116973#14 196116973#15 196116973#16 196116973#17 196116973#18 196116973#19 5672503#12 5672503#13 5672503#14 -440122879#2 -440122879#1" /></vehicle><vehicle id="35" depart="210.70"><route edges="-196116973#23 -196116973#22 -196116973#21 -196116973#20 -196116973#19 -196116973#18 -196116973#17 -196116973#16 -196116973#15 -196116973#14 196116973#14 196116973#15 196116973#16 196116973#17 196116973#18 196116973#19 5672503#12 5672503#13 5672503#14 -440122879#2 -440122879#1" /></vehicle><vehicle id="36" depart="240.00"><route edges="-196116973#23 -196116973#22 -196116973#21 -196116973#20 -196116973#19 -196116973#18 -196116973#17 -196116973#16 -196116973#15 -196116973#14 196116973#14 196116973#15 196116973#16 196116973#17 196116973#18 196116973#19 5672503#12 5672503#13 5672503#14 -440122879#2 -440122879#1" /></vehicle><vehicle id="37" depart="240.10"><route edges="-196116973#23 -196116973#22 -196116973#21 -196116973#20 -196116973#19 -196116973#18 -196116973#17 -196116973#16 -196116973#15 -196116973#14 196116973#14 196116973#15 196116973#16 196116973#17 196116973#18 196116973#19 5672503#12 5672503#13 5672503#14 -440122879#2 -440122879#1" /></vehicle><vehicle id="38" depart="240.20"><route edges="-196116973#23 -196116973#22 -196116973#21 -196116973#20 -196116973#19 -196116973#18 -196116973#17 -196116973#16 -196116973#15 -196116973#14 196116973#14 196116973#15 196116973#16 196116973#17 196116973#18 196116973#19 5672503#12 5672503#13 5672503#14 -440122879#2 -440122879#1" /></vehicle><vehicle id="39" depart="240.30"><route edges="-196116973#23 -196116973#22 -196116973#21 -196116973#20 -196116973#19 -196116973#18 -196116973#17 -196116973#16 -196116973#15 -196116973#14 196116973#14 196116973#15 196116973#16 196116973#17 196116973#18 196116973#19 5672503#12 5672503#13 5672503#14 -440122879#2 -440122879#1" /></vehicle><vehicle id="40" depart="240.40"><route edges="-196116973#23 -196116973#22 -196116973#21 -196116973#20 -196116973#19 -196116973#18 -196116973#17 -196116973#16 -196116973#15 -196116973#14 196116973#14 196116973#15 196116973#16 196116973#17 196116973#18 196116973#19 5672503#12 5672503#13 5672503#14 -440122879#2 -440122879#1" /></vehicle><vehicle id="41" depart="240.50"><route edges="-196116973#23 -196116973#22 -196116973#21 -196116973#20 -196116973#19 -196116973#18 -196116973#17 -196116973#16 -196116973#15 -196116973#14 196116973#14 196116973#15 196116973#16 196116973#17 196116973#18 196116973#19 5672503#12 5672503#13 5672503#14 -440122879#2 -440122879#1" /></vehicle><vehicle id="42" depart="240.60"><route edges="-196116973#23 -196116973#22 -196116973#21 -196116973#20 -196116973#19 -196116973#18 -196116973#17 -196116973#16 -196116973#15 -196116973#14 196116973#14 196116973#15 196116973#16 196116973#17 196116973#18 196116973#19 5672503#12 5672503#13 5672503#14 -440122879#2 -440122879#1" /></vehicle><vehicle id="43" depart="240.70"><route edges="-196116973#23 -196116973#22 -196116973#21 -196116973#20 -196116973#19 -196116973#18 -196116973#17 -196116973#16 -196116973#15 -196116973#14 196116973#14 196116973#15 196116973#16 196116973#17 196116973#18 196116973#19 5672503#12 5672503#13 5672503#14 -440122879#2 -440122879#1" /></vehicle><vehicle id="44" depart="240.80"><route edges="-196116973#23 -196116973#22 -196116973#21 -196116973#20 -196116973#19 -196116973#18 -196116973#17 -196116973#16 -196116973#15 -196116973#14 196116973#14 196116973#15 196116973#16 196116973#17 196116973#18 196116973#19 5672503#12 5672503#13 5672503#14 -440122879#2 -440122879#1" /></vehicle><vehicle id="45" depart="270.00"><route edges="-196116973#23 -196116973#22 -196116973#21 -196116973#20 -196116973#19 -196116973#18 -196116973#17 -196116973#16 -196116973#15 -196116973#14 196116973#14 196116973#15 196116973#16 196116973#17 196116973#18 196116973#19 5672503#12 5672503#13 5672503#14 -440122879#2 -440122879#1" /></vehicle><vehicle id="46" depart="270.10"><route edges="-196116973#23 -196116973#22 -196116973#21 -196116973#20 -196116973#19 -196116973#18 -196116973#17 -196116973#16 -196116973#15 -196116973#14 196116973#14 196116973#15 196116973#16 196116973#17 196116973#18 196116973#19 5672503#12 5672503#13 5672503#14 -440122879#2 -440122879#1" /></vehicle><vehicle id="47" depart="270.20"><route edges="-196116973#23 -196116973#22 -196116973#21 -196116973#20 -196116973#19 -196116973#18 -196116973#17 -196116973#16 -196116973#15 -196116973#14 196116973#14 196116973#15 196116973#16 196116973#17 196116973#18 196116973#19 5672503#12 5672503#13 5672503#14 -440122879#2 -440122879#1" /></vehicle><vehicle id="48" depart="270.30"><route edges="-196116973#23 -196116973#22 -196116973#21 -196116973#20 -196116973#19 -196116973#18 -196116973#17 -196116973#16 -196116973#15 -196116973#14 196116973#14 196116973#15 196116973#16 196116973#17 196116973#18 196116973#19 5672503#12 5672503#13 5672503#14 -440122879#2 -440122879#1" /></vehicle><vehicle id="49" depart="270.40"><route edges="-196116973#23 -196116973#22 -196116973#21 -196116973#20 -196116973#19 -196116973#18 -196116973#17 -196116973#16 -196116973#15 -196116973#14 196116973#14 196116973#15 196116973#16 196116973#17 196116973#18 196116973#19 5672503#12 5672503#13 5672503#14 -440122879#2 -440122879#1" /></vehicle><vehicle id="50" depart="270.50"><route edges="-196116973#23 -196116973#22 -196116973#21 -196116973#20 -196116973#19 -196116973#18 -196116973#17 -196116973#16 -196116973#15 -196116973#14 196116973#14 196116973#15 196116973#16 196116973#17 196116973#18 196116973#19 5672503#12 5672503#13 5672503#14 -440122879#2 -440122879#1" /></vehicle><vehicle id="51" depart="270.60"><route edges="-196116973#23 -196116973#22 -196116973#21 -196116973#20 -196116973#19 -196116973#18 -196116973#17 -196116973#16 -196116973#15 -196116973#14 196116973#14 196116973#15 196116973#16 196116973#17 196116973#18 196116973#19 5672503#12 5672503#13 5672503#14 -440122879#2 -440122879#1" /></vehicle><vehicle id="52" depart="270.70"><route edges="-196116973#23 -196116973#22 -196116973#21 -196116973#20 -196116973#19 -196116973#18 -196116973#17 -196116973#16 -196116973#15 -196116973#14 196116973#14 196116973#15 196116973#16 196116973#17 196116973#18 196116973#19 5672503#12 5672503#13 5672503#14 -440122879#2 -440122879#1" /></vehicle><vehicle id="53" depart="270.80"><route edges="-196116973#23 -196116973#22 -196116973#21 -196116973#20 -196116973#19 -196116973#18 -196116973#17 -196116973#16 -196116973#15 -196116973#14 196116973#14 196116973#15 196116973#16 196116973#17 196116973#18 196116973#19 5672503#12 5672503#13 5672503#14 -440122879#2 -440122879#1" /></vehicle><vehicle id="54" depart="270.90"><route edges="-196116973#23 -196116973#22 -196116973#21 -196116973#20 -196116973#19 -196116973#18 -196116973#17 -196116973#16 -196116973#15 -196116973#14 196116973#14 196116973#15 196116973#16 196116973#17 196116973#18 196116973#19 5672503#12 5672503#13 5672503#14 -440122879#2 -440122879#1" /></vehicle><vehicle id="55" depart="300.00"><route edges="-196116973#23 -196116973#22 -196116973#21 -196116973#20 -196116973#19 -196116973#18 -196116973#17 -196116973#16 -196116973#15 -196116973#14 196116973#14 196116973#15 196116973#16 196116973#17 196116973#18 196116973#19 5672503#12 5672503#13 5672503#14 -440122879#2 -440122879#1" /></vehicle><vehicle id="56" depart="300.10"><route edges="-196116973#23 -196116973#22 -196116973#21 -196116973#20 -196116973#19 -196116973#18 -196116973#17 -196116973#16 -196116973#15 -196116973#14 196116973#14 196116973#15 196116973#16 196116973#17 196116973#18 196116973#19 5672503#12 5672503#13 5672503#14 -440122879#2 -440122879#1" /></vehicle><vehicle id="57" depart="300.20"><route edges="-196116973#23 -196116973#22 -196116973#21 -196116973#20 -196116973#19 -196116973#18 -196116973#17 -196116973#16 -196116973#15 -196116973#14 196116973#14 196116973#15 196116973#16 196116973#17 196116973#18 196116973#19 5672503#12 5672503#13 5672503#14 -440122879#2 -440122879#1" /></vehicle><vehicle id="58" depart="300.30"><route edges="-196116973#23 -196116973#22 -196116973#21 -196116973#20 -196116973#19 -196116973#18 -196116973#17 -196116973#16 -196116973#15 -196116973#14 196116973#14 196116973#15 196116973#16 196116973#17 196116973#18 196116973#19 5672503#12 5672503#13 5672503#14 -440122879#2 -440122879#1" /></vehicle><vehicle id="59" depart="300.40"><route edges="-196116973#23 -196116973#22 -196116973#21 -196116973#20 -196116973#19 -196116973#18 -196116973#17 -196116973#16 -196116973#15 -196116973#14 196116973#14 196116973#15 196116973#16 196116973#17 196116973#18 196116973#19 5672503#12 5672503#13 5672503#14 -440122879#2 -440122879#1" /></vehicle><vehicle id="60" depart="300.50"><route edges="-196116973#23 -196116973#22 -196116973#21 -196116973#20 -196116973#19 -196116973#18 -196116973#17 -196116973#16 -196116973#15 -196116973#14 196116973#14 196116973#15 196116973#16 196116973#17 196116973#18 196116973#19 5672503#12 5672503#13 5672503#14 -440122879#2 -440122879#1" /></vehicle><vehicle id="61" depart="300.60"><route edges="-196116973#23 -196116973#22 -196116973#21 -196116973#20 -196116973#19 -196116973#18 -196116973#17 -196116973#16 -196116973#15 -196116973#14 196116973#14 196116973#15 196116973#16 196116973#17 196116973#18 196116973#19 5672503#12 5672503#13 5672503#14 -440122879#2 -440122879#1" /></vehicle><vehicle id="62" depart="300.70"><route edges="-196116973#23 -196116973#22 -196116973#21 -196116973#20 -196116973#19 -196116973#18 -196116973#17 -196116973#16 -196116973#15 -196116973#14 196116973#14 196116973#15 196116973#16 196116973#17 196116973#18 196116973#19 5672503#12 5672503#13 5672503#14 -440122879#2 -440122879#1" /></vehicle><vehicle id="63" depart="300.80"><route edges="-196116973#23 -196116973#22 -196116973#21 -196116973#20 -196116973#19 -196116973#18 -196116973#17 -196116973#16 -196116973#15 -196116973#14 196116973#14 196116973#15 196116973#16 196116973#17 196116973#18 196116973#19 5672503#12 5672503#13 5672503#14 -440122879#2 -440122879#1" /></vehicle><vehicle id="64" depart="300.90"><route edges="-196116973#23 -196116973#22 -196116973#21 -196116973#20 -196116973#19 -196116973#18 -196116973#17 -196116973#16 -196116973#15 -196116973#14 196116973#14 196116973#15 196116973#16 196116973#17 196116973#18 196116973#19 5672503#12 5672503#13 5672503#14 -440122879#2 -440122879#1" /></vehicle><vehicle id="65" depart="301.00"><route edges="-196116973#23 -196116973#22 -196116973#21 -196116973#20 -196116973#19 -196116973#18 -196116973#17 -196116973#16 -196116973#15 -196116973#14 196116973#14 196116973#15 196116973#16 196116973#17 196116973#18 196116973#19 5672503#12 5672503#13 5672503#14 -440122879#2 -440122879#1" /></vehicle><vehicle id="66" depart="330.00"><route edges="-196116973#23 -196116973#22 -196116973#21 -196116973#20 -196116973#19 -196116973#18 -196116973#17 -196116973#16 -196116973#15 -196116973#14 196116973#14 196116973#15 196116973#16 196116973#17 196116973#18 196116973#19 5672503#12 5672503#13 5672503#14 -440122879#2 -440122879#1" /></vehicle><vehicle id="67" depart="330.10"><route edges="-196116973#23 -196116973#22 -196116973#21 -196116973#20 -196116973#19 -196116973#18 -196116973#17 -196116973#16 -196116973#15 -196116973#14 196116973#14 196116973#15 196116973#16 196116973#17 196116973#18 196116973#19 5672503#12 5672503#13 5672503#14 -440122879#2 -440122879#1" /></vehicle><vehicle id="68" depart="330.20"><route edges="-196116973#23 -196116973#22 -196116973#21 -196116973#20 -196116973#19 -196116973#18 -196116973#17 -196116973#16 -196116973#15 -196116973#14 196116973#14 196116973#15 196116973#16 196116973#17 196116973#18 196116973#19 5672503#12 5672503#13 5672503#14 -440122879#2 -440122879#1" /></vehicle><vehicle id="69" depart="330.30"><route edges="-196116973#23 -196116973#22 -196116973#21 -196116973#20 -196116973#19 -196116973#18 -196116973#17 -196116973#16 -196116973#15 -196116973#14 196116973#14 196116973#15 196116973#16 196116973#17 196116973#18 196116973#19 5672503#12 5672503#13 5672503#14 -440122879#2 -440122879#1" /></vehicle><vehicle id="70" depart="330.40"><route edges="-196116973#23 -196116973#22 -196116973#21 -196116973#20 -196116973#19 -196116973#18 -196116973#17 -196116973#16 -196116973#15 -196116973#14 196116973#14 196116973#15 196116973#16 196116973#17 196116973#18 196116973#19 5672503#12 5672503#13 5672503#14 -440122879#2 -440122879#1" /></vehicle><vehicle id="71" depart="330.50"><route edges="-196116973#23 -196116973#22 -196116973#21 -196116973#20 -196116973#19 -196116973#18 -196116973#17 -196116973#16 -196116973#15 -196116973#14 196116973#14 196116973#15 196116973#16 196116973#17 196116973#18 196116973#19 5672503#12 5672503#13 5672503#14 -440122879#2 -440122879#1" /></vehicle><vehicle id="72" depart="330.60"><route edges="-196116973#23 -196116973#22 -196116973#21 -196116973#20 -196116973#19 -196116973#18 -196116973#17 -196116973#16 -196116973#15 -196116973#14 196116973#14 196116973#15 196116973#16 196116973#17 196116973#18 196116973#19 5672503#12 5672503#13 5672503#14 -440122879#2 -440122879#1" /></vehicle><vehicle id="73" depart="330.70"><route edges="-196116973#23 -196116973#22 -196116973#21 -196116973#20 -196116973#19 -196116973#18 -196116973#17 -196116973#16 -196116973#15 -196116973#14 196116973#14 196116973#15 196116973#16 196116973#17 196116973#18 196116973#19 5672503#12 5672503#13 5672503#14 -440122879#2 -440122879#1" /></vehicle><vehicle id="74" depart="330.80"><route edges="-196116973#23 -196116973#22 -196116973#21 -196116973#20 -196116973#19 -196116973#18 -196116973#17 -196116973#16 -196116973#15 -196116973#14 196116973#14 196116973#15 196116973#16 196116973#17 196116973#18 196116973#19 5672503#12 5672503#13 5672503#14 -440122879#2 -440122879#1" /></vehicle><vehicle id="75" depart="330.90"><route edges="-196116973#23 -196116973#22 -196116973#21 -196116973#20 -196116973#19 -196116973#18 -196116973#17 -196116973#16 -196116973#15 -196116973#14 196116973#14 196116973#15 196116973#16 196116973#17 196116973#18 196116973#19 5672503#12 5672503#13 5672503#14 -440122879#2 -440122879#1" /></vehicle><vehicle id="76" depart="331.00"><route edges="-196116973#23 -196116973#22 -196116973#21 -196116973#20 -196116973#19 -196116973#18 -196116973#17 -196116973#16 -196116973#15 -196116973#14 196116973#14 196116973#15 196116973#16 196116973#17 196116973#18 196116973#19 5672503#12 5672503#13 5672503#14 -440122879#2 -440122879#1" /></vehicle><vehicle id="77" depart="331.10"><route edges="-196116973#23 -196116973#22 -196116973#21 -196116973#20 -196116973#19 -196116973#18 -196116973#17 -196116973#16 -196116973#15 -196116973#14 196116973#14 196116973#15 196116973#16 196116973#17 196116973#18 196116973#19 5672503#12 5672503#13 5672503#14 -440122879#2 -440122879#1" /></vehicle><vehicle id="78" depart="360.00"><route edges="-196116973#23 -196116973#22 -196116973#21 -196116973#20 -196116973#19 -196116973#18 -196116973#17 -196116973#16 -196116973#15 -196116973#14 196116973#14 196116973#15 196116973#16 196116973#17 196116973#18 196116973#19 5672503#12 5672503#13 5672503#14 -440122879#2 -440122879#1" /></vehicle><vehicle id="79" depart="360.10"><route edges="-196116973#23 -196116973#22 -196116973#21 -196116973#20 -196116973#19 -196116973#18 -196116973#17 -196116973#16 -196116973#15 -196116973#14 196116973#14 196116973#15 196116973#16 196116973#17 196116973#18 196116973#19 5672503#12 5672503#13 5672503#14 -440122879#2 -440122879#1" /></vehicle><vehicle id="80" depart="360.20"><route edges="-196116973#23 -196116973#22 -196116973#21 -196116973#20 -196116973#19 -196116973#18 -196116973#17 -196116973#16 -196116973#15 -196116973#14 196116973#14 196116973#15 196116973#16 196116973#17 196116973#18 196116973#19 5672503#12 5672503#13 5672503#14 -440122879#2 -440122879#1" /></vehicle><vehicle id="81" depart="360.30"><route edges="-196116973#23 -196116973#22 -196116973#21 -196116973#20 -196116973#19 -196116973#18 -196116973#17 -196116973#16 -196116973#15 -196116973#14 196116973#14 196116973#15 196116973#16 196116973#17 196116973#18 196116973#19 5672503#12 5672503#13 5672503#14 -440122879#2 -440122879#1" /></vehicle><vehicle id="82" depart="360.40"><route edges="-196116973#23 -196116973#22 -196116973#21 -196116973#20 -196116973#19 -196116973#18 -196116973#17 -196116973#16 -196116973#15 -196116973#14 196116973#14 196116973#15 196116973#16 196116973#17 196116973#18 196116973#19 5672503#12 5672503#13 5672503#14 -440122879#2 -440122879#1" /></vehicle><vehicle id="83" depart="360.50"><route edges="-196116973#23 -196116973#22 -196116973#21 -196116973#20 -196116973#19 -196116973#18 -196116973#17 -196116973#16 -196116973#15 -196116973#14 196116973#14 196116973#15 196116973#16 196116973#17 196116973#18 196116973#19 5672503#12 5672503#13 5672503#14 -440122879#2 -440122879#1" /></vehicle><vehicle id="84" depart="360.60"><route edges="-196116973#23 -196116973#22 -196116973#21 -196116973#20 -196116973#19 -196116973#18 -196116973#17 -196116973#16 -196116973#15 -196116973#14 196116973#14 196116973#15 196116973#16 196116973#17 196116973#18 196116973#19 5672503#12 5672503#13 5672503#14 -440122879#2 -440122879#1" /></vehicle><vehicle id="85" depart="360.70"><route edges="-196116973#23 -196116973#22 -196116973#21 -196116973#20 -196116973#19 -196116973#18 -196116973#17 -196116973#16 -196116973#15 -196116973#14 196116973#14 196116973#15 196116973#16 196116973#17 196116973#18 196116973#19 5672503#12 5672503#13 5672503#14 -440122879#2 -440122879#1" /></vehicle><vehicle id="86" depart="360.80"><route edges="-196116973#23 -196116973#22 -196116973#21 -196116973#20 -196116973#19 -196116973#18 -196116973#17 -196116973#16 -196116973#15 -196116973#14 196116973#14 196116973#15 196116973#16 196116973#17 196116973#18 196116973#19 5672503#12 5672503#13 5672503#14 -440122879#2 -440122879#1" /></vehicle><vehicle id="87" depart="360.90"><route edges="-196116973#23 -196116973#22 -196116973#21 -196116973#20 -196116973#19 -196116973#18 -196116973#17 -196116973#16 -196116973#15 -196116973#14 196116973#14 196116973#15 196116973#16 196116973#17 196116973#18 196116973#19 5672503#12 5672503#13 5672503#14 -440122879#2 -440122879#1" /></vehicle><vehicle id="88" depart="361.00"><route edges="-196116973#23 -196116973#22 -196116973#21 -196116973#20 -196116973#19 -196116973#18 -196116973#17 -196116973#16 -196116973#15 -196116973#14 196116